Version 4.1
SHEET 1 1032 680
WIRE -16 -144 -64 -144
WIRE -16 -128 -16 -144
WIRE 288 -128 224 -128
WIRE 672 -128 544 -128
WIRE 768 -128 672 -128
WIRE 848 -128 768 -128
WIRE -64 -80 -64 -144
WIRE 672 -48 672 -128
WIRE 416 16 416 -32
WIRE 544 16 416 16
WIRE -64 32 -64 0
WIRE 32 32 -64 32
WIRE 128 32 32 32
WIRE 224 32 224 -128
WIRE 224 32 128 32
WIRE 416 48 416 16
WIRE -64 64 -64 32
WIRE 32 64 32 32
WIRE 128 64 128 32
WIRE 544 64 544 16
WIRE 544 64 432 64
WIRE 672 64 672 32
WIRE 672 64 544 64
WIRE -64 160 -64 128
WIRE 32 160 32 128
WIRE 32 160 -64 160
WIRE 128 160 128 128
WIRE 128 160 32 160
WIRE 416 160 416 112
WIRE 416 160 128 160
WIRE 784 160 416 160
WIRE 32 208 32 160
WIRE 768 224 768 -128
WIRE 848 224 768 224
FLAG -16 -128 0
FLAG 32 208 0
SYMBOL voltage -64 16 R180
WINDOW 0 24 96 Left 2
WINDOW 3 24 16 Left 2
SYMATTR InstName V1
SYMBOL cap -80 64 R0
SYMATTR InstName C1
SYMATTR Value 4700µ
SYMBOL cap 16 64 R0
SYMATTR InstName C2
SYMATTR Value 470n
SYMBOL cap 112 64 R0
SYMATTR InstName C3
SYMATTR Value 2n2
SYMBOL res 656 -64 R0
SYMATTR InstName R1
SYMATTR Value 220
SYMBOL res 944 208 R90
WINDOW 0 0 56 VBottom 2
WINDOW 3 32 56 VTop 2
SYMATTR InstName R3
SYMATTR Value 100
SYMBOL res 944 -144 R90
WINDOW 0 -10 57 VBottom 2
WINDOW 3 32 56 VTop 2
SYMATTR InstName R2
SYMATTR Value 100
SYMBOL PowerProducts\\LT317A 416 -128 R0
SYMATTR InstName U1
SYMBOL SpecialFunctions\\varistor 400 144 R180
WINDOW 3 0 4 Left 2
SYMATTR InstName A1
SYMATTR Value 10k
TEXT 680 -208 Left 2 ;24V (in theory)
