Version 4
SHEET 1 880 680
WIRE -160 -528 -256 -528
WIRE -160 -496 -160 -528
WIRE -256 -464 -256 -528
WIRE -256 -336 -256 -384
WIRE -128 -336 -256 -336
WIRE 16 -336 -128 -336
WIRE 160 -336 16 -336
WIRE 384 -336 160 -336
WIRE -128 -272 -128 -336
WIRE 16 -256 16 -336
WIRE 160 -256 160 -336
WIRE 384 -240 384 -336
WIRE -256 -176 -256 -336
WIRE -128 -160 -128 -192
WIRE -128 -160 -208 -160
WIRE 16 -160 16 -192
WIRE 16 -160 -128 -160
WIRE -128 -128 -128 -160
WIRE -256 -48 -256 -80
WIRE -256 -48 -432 -48
WIRE -128 0 -128 -48
WIRE 160 80 160 -176
WIRE 160 80 -80 80
WIRE 384 80 384 -176
WIRE 384 80 160 80
WIRE -128 160 -128 96
WIRE 160 208 160 144
WIRE 384 208 384 144
FLAG -128 160 0
FLAG 160 208 0
FLAG 384 208 0
FLAG -160 -496 0
FLAG -432 32 0
SYMBOL cap 144 80 R0
SYMATTR InstName C1
SYMATTR Value 22000µ
SYMBOL zener 400 144 R180
WINDOW 0 24 64 Left 2
WINDOW 3 24 0 Left 2
SYMATTR InstName D1
SYMATTR Value CDZV15B
SYMATTR Description Diode
SYMATTR Type diode
SYMBOL nmos -80 0 M0
SYMATTR InstName M1
SYMATTR Value IRFP250N
SYMBOL res -144 -144 R0
SYMATTR InstName R1
SYMATTR Value 1K
SYMATTR SpiceLine tol=1 pwr=0.1
SYMBOL res -144 -288 R0
SYMATTR InstName R2
SYMATTR Value 1K
SYMATTR SpiceLine tol=1 pwr=0.1
SYMBOL zener 32 -192 R180
WINDOW 0 24 64 Left 2
WINDOW 3 24 0 Left 2
SYMATTR InstName D2
SYMATTR Value CDZV15B
SYMATTR Description Diode
SYMATTR Type diode
SYMBOL res 144 -272 R0
SYMATTR InstName R3
SYMATTR Value 100K
SYMATTR SpiceLine tol=1 pwr=0.1
SYMBOL diode 400 -176 R180
WINDOW 0 24 64 Left 2
WINDOW 3 24 0 Left 2
SYMATTR InstName D3
SYMATTR Value 1N4007
SYMBOL pmos -208 -80 R180
SYMATTR InstName M2
SYMBOL voltage -256 -368 R180
WINDOW 0 24 96 Left 2
WINDOW 3 24 16 Left 2
WINDOW 123 0 0 Left 0
WINDOW 39 0 0 Left 0
SYMATTR InstName V1
SYMATTR Value PULSE(0 1 0.5 0.001 0.001 3)
SYMBOL res -448 -64 R0
SYMATTR InstName R4
SYMATTR Value 100
SYMATTR SpiceLine tol=1 pwr=0.1
TEXT 296 264 Left 2 ;Evala Ziener giati afth vrhka
TEXT -432 288 Left 2 !.tran 1
